ckt7_Mon_rfi_12_der050.csv
fault_bus,fault_type,fault_R_ohm,Va_mag_pu,Va_ang_deg,Vb_mag_pu,Vb_ang_deg,Vc_mag_pu,Vc_ang_deg,Ia_mag_A,Ia_ang_deg,Ib_mag_A,Ib_ang_deg,Ic_mag_A,Ic_ang_deg
318412,SLG,0,0.425931,-82.0161,1.374953,-132.6469,1.016315,100.1183,0.0,8.1088,0.0,-42.6131,0.0,-169.8606
318412,SLG,10,1.221721,-21.1206,1.221511,-140.7255,1.214997,98.867,0.0,68.7694,0.0,-50.6286,0.0,-171.1389
318412,SLG,20,1.221635,-21.0992,1.221581,-140.7286,1.215019,98.8715,0.0,69.0435,0.0,-50.6458,0.0,-171.0674
318412,SLG,30,1.221606,-21.092,1.221604,-140.7296,1.215027,98.873,0.0,68.9174,0.0,-50.5955,0.0,-171.1366
318412,SLG,40,1.221592,-21.0885,1.221616,-140.7302,1.21503,98.8737,0.0,68.9911,0.0,-50.6258,0.0,-171.0328
318412,LL,0,0.372975,-110.4309,0.262437,-160.7963,1.110363,105.7993,0.0,-20.3034,0.0,-70.7943,0.0,-164.1599
318412,LL,10,1.221676,-21.1296,1.221683,-140.7685,1.214855,98.8734,0.0,68.9088,0.0,-50.6617,0.0,-171.2034
318412,LL,20,1.221612,-21.1037,1.221667,-140.7501,1.214948,98.8747,0.0,68.7767,0.0,-50.4456,0.0,-171.1844
318412,LL,30,1.221591,-21.095,1.221662,-140.744,1.214979,98.8751,0.0,68.9077,0.0,-50.7363,0.0,-171.0912
318412,LL,40,1.22158,-21.0907,1.221659,-140.7409,1.214995,98.8753,0.0,68.9162,0.0,-50.6617,0.0,-171.1366
318412,3LG,0,0.167839,-95.8997,0.167745,144.333,0.167232,23.917,0.0,-5.8035,0.0,-125.6206,0.0,114.0013
318412,3LG,10,1.221535,-21.1234,1.221638,-140.7773,1.215028,98.8303,0.0,68.9026,0.0,-50.7793,0.0,-171.0437
318412,3LG,20,1.221542,-21.1006,1.221645,-140.7545,1.215035,98.8531,0.0,68.8838,0.0,-50.9374,0.0,-171.1366
318412,3LG,30,1.221544,-21.093,1.221647,-140.7469,1.215037,98.8607,0.0,68.8398,0.0,-50.7754,0.0,-171.2166
318412,3LG,40,1.221545,-21.0892,1.221648,-140.7431,1.215038,98.8645,0.0,68.802,0.0,-50.6542,0.0,-171.1952
243937,SLG,0,0.60444,-96.9971,1.837267,-159.2538,1.638217,124.7119,0.0,-7.1513,0.0,-69.2105,0.0,-145.3016
243937,SLG,10,1.215653,-21.3972,1.226639,-140.8353,1.214458,99.1309,0.0,68.6662,0.0,-50.8742,0.0,-170.8377
243937,SLG,20,1.218591,-21.2378,1.224154,-140.7836,1.214742,99.0038,0.0,68.6908,0.0,-50.6334,0.0,-170.9637
243937,SLG,30,1.219575,-21.1845,1.223322,-140.7664,1.21484,98.9612,0.0,68.8136,0.0,-50.9652,0.0,-171.0347
243937,SLG,40,1.220068,-21.1578,1.222905,-140.7577,1.21489,98.9399,0.0,68.7947,0.0,-50.7118,0.0,-171.1129
243937,LL,0,0.310413,-129.2165,0.306969,-142.6286,1.63627,102.1965,0.0,-39.0541,0.0,-52.5752,0.0,-167.7529
243937,LL,10,1.215066,-21.1439,1.220697,-141.153,1.219407,99.027,0.0,68.8113,0.0,-51.0849,0.0,-170.918
243937,LL,20,1.218289,-21.1108,1.221176,-140.9433,1.217233,98.9521,0.0,68.9249,0.0,-50.8774,0.0,-170.9401
243937,LL,30,1.219371,-21.0997,1.221335,-140.8729,1.216505,98.9269,0.0,68.9725,0.0,-50.7804,0.0,-170.9621
243937,LL,40,1.219914,-21.0942,1.221414,-140.8377,1.21614,98.9142,0.0,68.9612,0.0,-50.9864,0.0,-171.0565
243937,3LG,0,0.04152,-79.398,0.041497,160.8203,0.041375,40.4226,0.0,10.6709,0.0,-109.1448,0.0,130.4134
243937,3LG,10,1.220006,-21.246,1.22011,-140.9003,1.213514,98.7075,0.0,68.89,0.0,-50.9696,0.0,-171.1844
243937,3LG,20,1.220778,-21.1619,1.220881,-140.8161,1.214279,98.7917,0.0,68.782,0.0,-50.8604,0.0,-171.2059
243937,3LG,30,1.221035,-21.1339,1.221138,-140.788,1.214533,98.8197,0.0,68.8398,0.0,-50.7622,0.0,-171.182
243937,3LG,40,1.221164,-21.1198,1.221267,-140.7739,1.21466,98.8338,0.0,68.9475,0.0,-50.8024,0.0,-171.1582
157347,SLG,0,0.554341,-35.5593,1.490379,-153.1201,1.431113,112.3033,0.0,54.4355,0.0,-63.1411,0.0,-157.746
157347,SLG,10,1.21636,-21.728,1.22844,-140.6932,1.210932,99.1327,0.0,68.2894,0.0,-50.896,0.0,-170.803
157347,SLG,20,1.218972,-21.405,1.225063,-140.7111,1.212951,99.0041,0.0,68.6202,0.0,-50.7424,0.0,-170.9653
157347,SLG,30,1.219835,-21.2964,1.223929,-140.7176,1.21364,98.9613,0.0,68.6527,0.0,-50.6348,0.0,-171.0783
157347,SLG,40,1.220265,-21.2419,1.223361,-140.721,1.213987,98.9399,0.0,68.7947,0.0,-50.7963,0.0,-171.0674
157347,LL,0,0.532902,-26.4332,0.595274,-150.1476,1.492205,99.2523,0.0,63.614,0.0,-60.1485,0.0,-170.7631
157347,LL,10,1.212275,-21.473,1.223097,-141.3432,1.217708,99.1702,0.0,68.4991,0.0,-51.4001,0.0,-170.9056
157347,LL,20,1.216882,-21.2778,1.222436,-141.0387,1.216351,99.0252,0.0,68.6916,0.0,-51.0688,0.0,-171.0092
157347,LL,30,1.218431,-21.2117,1.222188,-140.9367,1.215909,98.9759,0.0,68.7685,0.0,-51.0516,0.0,-170.9526
157347,LL,40,1.219208,-21.1784,1.222059,-140.8855,1.21569,98.9511,0.0,68.8701,0.0,-50.9154,0.0,-170.918
157347,3LG,0,0.574412,-26.6799,0.57406,-146.4567,0.572197,93.1213,0.0,63.2899,0.0,-56.3923,0.0,-176.8243
157347,3LG,10,1.218947,-21.4351,1.219064,-141.0895,1.212467,98.5189,0.0,68.5877,0.0,-51.0026,0.0,-171.5281
157347,3LG,20,1.220258,-21.257,1.220368,-140.9112,1.213764,98.6968,0.0,68.7675,0.0,-50.8063,0.0,-171.1713
157347,3LG,30,1.22069,-21.1974,1.220798,-140.8515,1.214192,98.7564,0.0,68.845,0.0,-50.8985,0.0,-171.115
157347,3LG,40,1.220906,-21.1675,1.221012,-140.8216,1.214405,98.7862,0.0,68.9787,0.0,-50.8283,0.0,-171.1952
298162,SLG,0,0.402072,-91.2528,1.678975,-149.7061,1.325099,119.9797,0.0,-1.167,0.0,-59.9187,0.0,-150.0162
298162,SLG,10,1.216543,-22.775,1.234396,-140.3239,1.201111,99.1872,0.0,67.2443,0.0,-50.2385,0.0,-170.8173
298162,SLG,20,1.219141,-21.9316,1.227998,-140.5214,1.207983,99.0272,0.0,68.0687,0.0,-50.7534,0.0,-170.9669
298162,SLG,30,1.219965,-21.6481,1.225876,-140.5901,1.210315,98.9758,0.0,68.3023,0.0,-50.5653,0.0,-171.0109
298162,SLG,40,1.220369,-21.506,1.224817,-140.625,1.211489,98.9504,0.0,68.4705,0.0,-50.6983,0.0,-171.0365
298162,LL,0,0.255765,-140.4884,0.254834,-143.2954,1.512952,104.2509,0.0,-50.4069,0.0,-53.0302,0.0,-165.7725
298162,LL,10,1.202631,-22.4762,1.228809,-142.0238,1.213951,99.5993,0.0,67.5352,0.0,-52.0264,0.0,-170.3768
298162,LL,20,1.212072,-21.7845,1.225431,-141.3776,1.214325,99.2406,0.0,68.2116,0.0,-51.4814,0.0,-170.7796
298162,LL,30,1.215227,-21.5506,1.224216,-141.1622,1.214525,99.1196,0.0,68.368,0.0,-51.2098,0.0,-170.8377
298162,LL,40,1.216806,-21.433,1.223591,-141.0546,1.21464,99.0589,0.0,68.5813,0.0,-51.0522,0.0,-170.9526
298162,3LG,0,0.007374,-88.5588,0.007372,151.6355,0.007347,31.3076,0.0,1.4636,0.0,-118.377,0.0,121.2278
298162,3LG,10,1.214961,-22.0668,1.215156,-141.721,1.20852,97.8903,0.0,68.0238,0.0,-51.6628,0.0,-171.9942
298162,3LG,20,1.218291,-21.5736,1.218441,-141.2277,1.211816,98.3818,0.0,68.4128,0.0,-51.0568,0.0,-171.573
298162,3LG,30,1.219385,-21.4086,1.219519,-141.0627,1.212899,98.5462,0.0,68.6639,0.0,-51.2747,0.0,-171.3928
298162,3LG,40,1.219929,-21.326,1.220056,-140.98,1.213438,98.6285,0.0,68.7792,0.0,-50.9323,0.0,-171.2191
165448,SLG,0,0.395071,-91.4648,1.685179,-149.4819,1.318408,120.2438,0.0,-1.6151,0.0,-59.4153,0.0,-149.7436
165448,SLG,10,1.216828,-22.9073,1.235082,-140.2685,1.199738,99.1866,0.0,67.1238,0.0,-50.3691,0.0,-170.8297
165448,SLG,20,1.219305,-21.9983,1.228328,-140.4927,1.207287,99.0259,0.0,67.926,0.0,-50.6252,0.0,-171.0475
165448,SLG,30,1.220079,-21.6927,1.226093,-140.5707,1.20985,98.9747,0.0,68.1596,0.0,-50.6396,0.0,-171.0585
165448,SLG,40,1.220456,-21.5395,1.224979,-140.6103,1.211139,98.9496,0.0,68.3993,0.0,-50.7265,0.0,-171.102
165448,LL,0,0.252556,-141.2139,0.251767,-143.8469,1.513941,104.4421,0.0,-51.3402,0.0,-53.6371,0.0,-165.6103
165448,LL,10,1.201545,-22.6108,1.229709,-142.1021,1.213291,99.6557,0.0,67.391,0.0,-52.2921,0.0,-170.2724
165448,LL,20,1.211539,-21.853,1.225907,-141.4161,1.213963,99.2687,0.0,68.0221,0.0,-51.4108,0.0,-170.7918
165448,LL,30,1.214875,-21.5965,1.224539,-141.1877,1.214276,99.1383,0.0,68.3677,0.0,-51.2263,0.0,-170.7796
165448,LL,40,1.216543,-21.4676,1.223836,-141.0736,1.21445,99.0729,0.0,68.5633,0.0,-51.2804,0.0,-170.9305
165448,3LG,0,0.006831,-88.9474,0.006829,151.2445,0.006806,30.9237,0.0,1.0443,0.0,-118.7618,0.0,121.0642
165448,3LG,10,1.214515,-22.1459,1.214724,-141.8,1.208077,97.8118,0.0,67.903,0.0,-51.8811,0.0,-172.1491
165448,3LG,20,1.218075,-21.6134,1.218231,-141.2674,1.211601,98.3424,0.0,68.4064,0.0,-51.2911,0.0,-171.6362
165448,3LG,30,1.219243,-21.4352,1.219381,-141.0891,1.212757,98.5199,0.0,68.6505,0.0,-51.0735,0.0,-171.4831
165448,3LG,40,1.219823,-21.346,1.219952,-140.9999,1.213332,98.6088,0.0,68.4843,0.0,-50.9104,0.0,-171.3686
165449,SLG,0,0.329868,-96.4417,1.738476,-149.3249,1.314152,122.5397,0.0,-6.5893,0.0,-59.1828,0.0,-147.4396
165449,SLG,10,1.221222,-24.2494,1.242492,-139.694,1.185326,99.188,0.0,65.8364,0.0,-49.7777,0.0,-170.7737
165449,SLG,20,1.221825,-22.674,1.231793,-140.192,1.199993,99.012,0.0,67.4841,0.0,-50.1745,0.0,-170.8761
165449,SLG,30,1.221832,-22.1441,1.228346,-140.3673,1.204969,98.9622,0.0,67.953,0.0,-50.4757,0.0,-170.9796
165449,SLG,40,1.221799,-21.8784,1.226647,-140.4567,1.207473,98.9389,0.0,68.0694,0.0,-50.5307,0.0,-170.9431
165449,LL,0,0.217719,-149.6479,0.21772,-151.4325,1.545529,105.2732,0.0,-59.7436,0.0,-61.5142,0.0,-164.7112
165449,LL,10,1.191438,-23.9762,1.240702,-142.8937,1.206692,100.2621,0.0,65.9686,0.0,-52.8483,0.0,-169.7267
165449,LL,20,1.206728,-22.55,1.231714,-141.7992,1.210192,99.5657,0.0,67.4317,0.0,-51.836,0.0,-170.4567
165449,LL,30,1.211726,-22.0643,1.228476,-141.4401,1.211657,99.3346,0.0,67.9638,0.0,-51.5455,0.0,-170.6991
165449,LL,40,1.214204,-21.8195,1.226813,-141.2617,1.212446,99.2194,0.0,68.1921,0.0,-51.2861,0.0,-170.6997
165449,3LG,0,0.003965,-93.5237,0.003966,146.6331,0.003952,26.3952,0.0,-3.5385,0.0,-123.4452,0.0,116.4896
165449,3LG,10,1.21135,-22.9324,1.211768,-142.5831,1.204928,97.035,0.0,67.0642,0.0,-52.6721,0.0,-172.9716
165449,3LG,20,1.21659,-22.009,1.216851,-141.661,1.210117,97.9517,0.0,68.0072,0.0,-51.6025,0.0,-172.1744
165449,3LG,30,1.218275,-21.6995,1.218483,-141.352,1.211789,98.2589,0.0,68.3184,0.0,-51.3511,0.0,-171.7406
165449,3LG,40,1.219105,-21.5444,1.219287,-141.1972,1.212613,98.4128,0.0,68.4829,0.0,-51.1006,0.0,-171.4831
287274,SLG,0,0.341715,-83.7048,1.737032,-147.7024,1.265314,122.4924,0.0,6.1332,0.0,-57.6643,0.0,-147.5236
287274,SLG,10,1.218289,-25.1652,1.248173,-139.3119,1.17531,99.2152,0.0,64.6363,0.0,-49.0993,0.0,-170.8954
287274,SLG,20,1.220719,-23.1434,1.234405,-139.9839,1.194826,99.0097,0.0,66.854,0.0,-50.0507,0.0,-170.9829
287274,SLG,30,1.221178,-22.4595,1.23003,-140.2248,1.201494,98.957,0.0,67.5394,0.0,-50.2166,0.0,-171.1434
287274,SLG,40,1.22134,-22.1158,1.227887,-140.3484,1.204856,98.9337,0.0,67.8366,0.0,-50.1811,0.0,-171.0365
287274,LL,0,0.192029,-110.0503,0.277192,-166.3155,1.536743,105.7369,0.0,-20.0396,0.0,-76.3549,0.0,-164.2146
287274,LL,10,1.178409,-24.889,1.242621,-143.4533,1.202856,100.707,0.0,65.1192,0.0,-53.6171,0.0,-169.3197
287274,LL,20,1.200417,-23.0289,1.233036,-142.0695,1.207729,99.7834,0.0,67.1134,0.0,-52.0887,0.0,-170.1674
287274,LL,30,1.207573,-22.3885,1.229434,-141.6178,1.209892,99.4781,0.0,67.5834,0.0,-51.5403,0.0,-170.4567
287274,LL,40,1.211111,-22.0645,1.227559,-141.394,1.211077,99.3264,0.0,67.9308,0.0,-51.3402,0.0,-170.7345
287274,3LG,0,0.134389,-59.3942,0.134419,-179.2649,0.133977,60.5467,0.0,30.6507,0.0,-89.207,0.0,150.5339
287274,3LG,10,1.203568,-23.4542,1.204192,-143.1042,1.197224,96.5228,0.0,66.6165,0.0,-52.9975,0.0,-173.342
287274,3LG,20,1.212766,-22.278,1.21313,-141.9291,1.206322,97.6878,0.0,67.6504,0.0,-51.9168,0.0,-172.2954
287274,3LG,30,1.215742,-21.8806,1.216018,-141.5324,1.209272,98.0812,0.0,68.0164,0.0,-51.8067,0.0,-171.9548
287274,3LG,40,1.217212,-21.6808,1.217445,-141.3332,1.210731,98.2789,0.0,68.2568,0.0,-51.4549,0.0,-171.6956
283954,SLG,0,0.31078,-85.924,1.750012,-148.2014,1.280642,123.0551,0.0,3.9877,0.0,-58.2139,0.0,-146.8258
283954,SLG,10,1.221368,-25.9737,1.252822,-138.9727,1.166602,99.2197,0.0,64.2092,0.0,-49.0445,0.0,-170.7178
283954,SLG,20,1.222655,-23.5503,1.236414,-139.8001,1.190412,98.9945,0.0,66.3496,0.0,-49.9185,0.0,-170.9154
283954,SLG,30,1.222559,-22.7312,1.231291,-140.0993,1.198544,98.943,0.0,67.2407,0.0,-50.1037,0.0,-171.0644
283954,SLG,40,1.222409,-22.3197,1.228803,-140.2533,1.202642,98.9217,0.0,67.6624,0.0,-50.2166,0.0,-171.0844
283954,LL,0,0.173771,-107.7122,0.264687,-172.2001,1.554123,105.5966,0.0,-17.7773,0.0,-82.2674,0.0,-164.3409
283954,LL,10,1.172489,-25.718,1.249837,-143.9524,1.199264,101.0945,0.0,64.1969,0.0,-53.95,0.0,-168.9616
283954,LL,20,1.197855,-23.4589,1.2369,-142.3021,1.205387,99.9659,0.0,66.5354,0.0,-52.1961,0.0,-170.0268
283954,LL,30,1.205963,-22.6782,1.232056,-141.7687,1.208214,99.5965,0.0,67.2606,0.0,-51.7234,0.0,-170.3985
283954,LL,40,1.209942,-22.2828,1.229542,-141.5056,1.209776,99.4138,0.0,67.6113,0.0,-51.4914,0.0,-170.6536
283954,3LG,0,0.141655,-61.6925,0.141729,178.4066,0.141281,58.2743,0.0,28.2659,0.0,-91.5,0.0,148.1858
283954,3LG,10,1.202111,-23.9328,1.202969,-143.579,1.195773,96.0558,0.0,66.1592,0.0,-53.6081,0.0,-173.92
283954,3LG,20,1.212153,-22.5216,1.212631,-142.1702,1.205697,97.45,0.0,67.4499,0.0,-52.2254,0.0,-172.6114
283954,3LG,30,1.21536,-22.0439,1.215712,-141.6939,1.20888,97.9218,0.0,68.0689,0.0,-51.7449,0.0,-172.0094
283954,3LG,40,1.216936,-21.8037,1.217225,-141.4546,1.210446,98.1591,0.0,68.2213,0.0,-51.5427,0.0,-171.7507
283956,SLG,0,0.529276,-71.205,1.692726,-145.0578,1.189182,120.3211,0.0,18.7658,0.0,-55.0471,0.0,-149.6507
283956,SLG,10,1.220914,-25.8854,1.252381,-139.0092,1.167507,99.222,0.0,64.0662,0.0,-49.1147,0.0,-170.7773
283956,SLG,20,1.222517,-23.5276,1.236322,-139.8102,1.190645,98.9961,0.0,66.4514,0.0,-49.9518,0.0,-170.9621
283956,SLG,30,1.222494,-22.721,1.231254,-140.104,1.198649,98.9439,0.0,67.4509,0.0,-50.2033,0.0,-171.0052
283956,SLG,40,1.222372,-22.3139,1.228783,-140.2559,1.202701,98.9223,0.0,67.5373,0.0,-50.3145,0.0,-171.1193
283956,LL,0,0.394956,-73.3891,0.497069,-174.6429,1.486118,106.36,0.0,16.6477,0.0,-84.6894,0.0,-163.5749
283956,LL,10,1.173356,-25.6221,1.248497,-143.9043,1.199798,101.045,0.0,64.3329,0.0,-53.935,0.0,-168.9268
283956,LL,20,1.19805,-23.4332,1.236542,-142.2912,1.205564,99.9542,0.0,66.6218,0.0,-52.5156,0.0,-169.992
283956,LL,30,1.206047,-22.6664,1.231894,-141.764,1.208299,99.5914,0.0,67.3476,0.0,-51.8428,0.0,-170.4567
283956,LL,40,1.209989,-22.2761,1.22945,-141.503,1.209825,99.411,0.0,67.6971,0.0,-51.5132,0.0,-170.665
283956,3LG,0,0.398669,-58.5775,0.399022,-178.4498,0.397431,61.3858,0.0,31.2743,0.0,-88.4556,0.0,151.4666
283956,3LG,10,1.20217,-23.8922,1.203008,-143.5388,1.195833,96.0953,0.0,66.0627,0.0,-53.5512,0.0,-173.8365
283956,3LG,20,1.212165,-22.5109,1.212638,-142.1597,1.20571,97.4604,0.0,67.5407,0.0,-52.2281,0.0,-172.4821
283956,3LG,30,1.215366,-22.039,1.215715,-141.6891,1.208886,97.9266,0.0,67.9317,0.0,-51.7399,0.0,-172.0192
283956,3LG,40,1.216939,-21.8009,1.217227,-141.4518,1.21045,98.1618,0.0,68.1595,0.0,-51.2582,0.0,-171.8302
189963,SLG,0,0.104846,-91.4692,1.812694,-147.875,1.274534,125.7907,0.0,-0.8098,0.0,-57.9548,0.0,-144.2135
189963,SLG,10,1.194227,-28.8856,1.273285,-137.8668,1.135187,99.436,0.0,61.1456,0.0,-47.7072,0.0,-170.5007
189963,SLG,20,1.210521,-25.048,1.24538,-139.1633,1.174029,99.017,0.0,64.999,0.0,-49.3169,0.0,-170.9556
189963,SLG,30,1.214819,-23.7378,1.236931,-139.6569,1.187512,98.9388,0.0,66.2614,0.0,-49.6676,0.0,-171.0906
189963,SLG,40,1.216739,-23.0775,1.232897,-139.9149,1.194332,98.9114,0.0,66.806,0.0,-50.1524,0.0,-171.137
189963,LL,0,0.047347,-160.2229,0.095306,-163.2958,1.605647,105.8221,0.0,-70.56,0.0,-72.9622,0.0,-164.1128
189963,LL,10,1.113308,-28.5567,1.239553,-145.8648,1.191216,102.6363,0.0,61.5389,0.0,-55.9103,0.0,-167.3318
189963,LL,20,1.16912,-24.9778,1.233007,-143.2004,1.198442,100.7004,0.0,65.0062,0.0,-53.3652,0.0,-169.214
189963,LL,30,1.187073,-23.7105,1.229682,-142.3524,1.202958,100.0722,0.0,66.342,0.0,-52.3661,0.0,-169.8753
189963,LL,40,1.195884,-23.0641,1.227834,-141.9374,1.205604,99.7646,0.0,67.0509,0.0,-51.8759,0.0,-170.1312
189963,3LG,0,0.027762,-16.2977,0.027779,-136.2889,0.027776,103.7188,0.0,73.7254,0.0,-46.2369,0.0,-166.2193
189963,3LG,10,1.161861,-25.5477,1.163666,-145.1902,1.156031,94.4976,0.0,64.3933,0.0,-55.1899,0.0,-175.5477
189963,3LG,20,1.191939,-23.3725,1.192894,-143.015,1.18565,96.6289,0.0,66.7172,0.0,-53.1247,0.0,-173.3824
189963,3LG,30,1.201879,-22.6208,1.202545,-142.2659,1.195488,97.3649,0.0,67.4237,0.0,-52.2848,0.0,-172.6533
189963,3LG,40,1.206825,-22.24,1.207348,-141.8869,1.200394,97.7377,0.0,67.7859,0.0,-51.7687,0.0,-172.2061
181977,SLG,0,0.182601,-73.0911,1.783427,-147.1202,1.249574,124.5255,0.0,17.4093,0.0,-57.0682,0.0,-145.5546
181977,SLG,10,1.195831,-29.4697,1.277383,-137.6495,1.128919,99.4785,0.0,60.4975,0.0,-47.6614,0.0,-170.4132
181977,SLG,20,1.212107,-25.3648,1.247036,-139.0232,1.170576,99.0075,0.0,64.5986,0.0,-48.9437,0.0,-170.9572
181977,SLG,30,1.216069,-23.9539,1.237916,-139.5567,1.185159,98.9252,0.0,66.0907,0.0,-49.6859,0.0,-171.0461
181977,SLG,40,1.217751,-23.2413,1.233588,-139.8373,1.192551,98.8984,0.0,66.9201,0.0,-49.7798,0.0,-170.9621
181977,LL,0,0.113845,-64.6441,0.198652,-175.7178,1.582989,105.7288,0.0,25.56,0.0,-85.2984,0.0,-164.2462
181977,LL,10,1.108261,-29.1023,1.244639,-146.2979,1.190192,102.9551,0.0,60.9194,0.0,-56.272,0.0,-167.0751
181977,LL,20,1.167131,-25.3092,1.2362,-143.3979,1.196837,100.8544,0.0,64.6807,0.0,-53.3503,0.0,-169.1091
181977,LL,30,1.185913,-23.9433,1.231922,-142.4782,1.201648,100.1705,0.0,65.9679,0.0,-52.4293,0.0,-169.7778
181977,LL,40,1.195083,-23.2429,1.229551,-142.0294,1.204534,99.8363,0.0,66.7897,0.0,-52.1189,0.0,-170.1553
181977,3LG,0,0.151071,-49.5998,0.151222,-169.5723,0.151088,70.4345,0.0,40.5107,0.0,-79.6842,0.0,160.5307
181977,3LG,10,1.161187,-25.887,1.16321,-145.5272,1.155392,94.169,0.0,64.2641,0.0,-55.6006,0.0,-175.7936
181977,3LG,20,1.191688,-23.564,1.192751,-143.2037,1.185382,96.4434,0.0,66.3475,0.0,-53.1712,0.0,-173.6321
181977,3LG,30,1.201739,-22.7534,1.202474,-142.3963,1.195328,97.2362,0.0,67.1113,0.0,-52.4185,0.0,-172.8309
181977,3LG,40,1.206732,-22.3414,1.207305,-141.9864,1.200282,97.6394,0.0,67.5059,0.0,-51.8913,0.0,-172.2316
181924,SLG,0,0.000686,-112.4746,1.816404,-150.2306,1.349725,125.6395,4937.4889,-112.4746,0.0,-60.1869,0.0,-144.3157
181924,SLG,10,1.202229,-31.3078,1.288868,-136.9631,1.109791,99.5425,865.5521,-31.3078,0.0,-46.8774,0.0,-170.5628
181924,SLG,20,1.216657,-26.2333,1.251175,-138.6438,1.16138,98.9646,437.9696,-26.2333,0.0,-48.734,0.0,-170.995
181924,SLG,30,1.219379,-24.5198,1.240292,-139.2987,1.179166,98.8822,292.6329,-24.5198,0.0,-49.5067,0.0,-171.0837
181924,SLG,40,1.220333,-23.6607,1.235224,-139.6423,1.188116,98.8611,219.6464,-23.6607,0.0,-49.5143,0.0,-171.1127
181924,LL,0,0.000781,-71.0649,0.001066,133.9628,1.633997,103.9324,5625.1001,-71.0649,7675.7305,133.9628,0.0,-165.9891
181924,LL,10,1.092398,-30.9902,1.262402,-147.5428,1.184958,103.9475,786.4781,-30.9902,908.8733,-147.5428,0.0,-165.9289
181924,LL,20,1.161755,-26.2559,1.245133,-143.9099,1.191966,101.2648,418.2062,-26.2559,448.2205,-143.9099,0.0,-168.7181
181924,LL,30,1.182925,-24.569,1.237763,-142.7955,1.198031,100.4196,283.8847,-24.569,297.0448,-142.7955,0.0,-169.6856
181924,LL,40,1.193066,-23.7094,1.233871,-142.2586,1.201705,100.0134,214.7387,-23.7094,222.0831,-142.2586,0.0,-170.0023
181924,3LG,0,0.001041,-86.5958,0.001042,153.4249,0.001042,33.4117,7498.088,-86.5958,7502.3142,153.4249,7501.1314,33.4117
181924,3LG,10,1.158422,-26.9408,1.160894,-146.5637,1.15254,93.144,834.0129,-26.9408,835.7926,-146.5637,829.7782,93.144
181924,3LG,20,1.190804,-24.0889,1.192026,-143.7171,1.184364,95.931,428.6633,-24.0889,429.1029,-143.7171,426.3447,95.931
181924,3LG,30,1.201268,-23.1024,1.20209,-142.7372,1.194749,96.895,288.2866,-23.1024,288.484,-142.7372,286.7223,96.895
181924,3LG,40,1.206424,-22.6026,1.207055,-142.2416,1.199887,97.3836,217.1429,-22.6026,217.2566,-142.2416,215.9665,97.3836
181993,SLG,0,0.088224,-24.7776,1.792369,-149.6258,1.328705,124.6774,0.0,65.1576,0.0,-59.6223,0.0,-145.228
181993,SLG,10,1.207564,-31.4126,1.28811,-136.7109,1.105499,99.3482,0.0,58.6097,0.0,-46.6933,0.0,-170.6901
181993,SLG,20,1.220251,-26.2778,1.250031,-138.5072,1.159481,98.8385,0.0,63.6769,0.0,-48.5192,0.0,-171.1896
181993,SLG,30,1.221975,-24.5466,1.239345,-139.2071,1.177984,98.7926,0.0,65.4862,0.0,-49.3019,0.0,-171.1082
181993,SLG,40,1.222354,-23.6794,1.234444,-139.5738,1.187264,98.792,0.0,66.2849,0.0,-49.721,0.0,-171.2811
181993,LL,0,0.070754,-20.186,0.092014,-136.0373,1.611412,103.9518,0.0,69.6559,0.0,-45.6511,0.0,-166.015
181993,LL,10,1.093152,-31.2779,1.267419,-147.5065,1.180528,104.1172,0.0,58.8058,0.0,-57.7154,0.0,-165.7533
181993,LL,20,1.163393,-26.4264,1.247869,-143.8463,1.188867,101.3066,0.0,63.639,0.0,-53.8075,0.0,-168.7041
181993,LL,30,1.184326,-24.6854,1.239564,-142.7428,1.195839,100.4351,0.0,65.313,0.0,-52.8417,0.0,-169.6123
181993,LL,40,1.194233,-23.7973,1.235203,-142.2153,1.200026,100.0202,0.0,66.1643,0.0,-52.0647,0.0,-170.0371
181993,3LG,0,0.079844,-13.4784,0.079961,-133.4116,0.079861,106.5819,0.0,76.5147,0.0,-43.4709,0.0,-163.3583
181993,3LG,10,1.159343,-26.9978,1.161838,-146.6111,1.153304,93.0929,0.0,62.826,0.0,-56.7316,0.0,-176.9717
181993,3LG,20,1.191549,-24.1259,1.192747,-143.7483,1.184991,95.896,0.0,65.9106,0.0,-53.7002,0.0,-174.0963
181993,3LG,30,1.201834,-23.1287,1.202632,-142.7597,1.195231,96.8696,0.0,66.7782,0.0,-52.8518,0.0,-173.1487
181993,3LG,40,1.206875,-22.623,1.207485,-142.259,1.200273,97.3638,0.0,67.3476,0.0,-52.1281,0.0,-172.5411
181994,SLG,0,0.167606,-28.7309,1.768799,-148.9069,1.304963,123.7058,0.0,61.7251,0.0,-58.8962,0.0,-146.2192
181994,SLG,10,1.211315,-31.5869,1.288435,-136.4871,1.101156,99.2165,0.0,58.5073,0.0,-46.5406,0.0,-170.7672
181994,SLG,20,1.22318,-26.3646,1.249429,-138.3774,1.157427,98.7382,0.0,63.5325,0.0,-48.423,0.0,-171.3096
181994,SLG,30,1.224162,-24.6027,1.23875,-139.1185,1.176677,98.7189,0.0,65.328,0.0,-49.0587,0.0,-171.2868
181994,SLG,40,1.22408,-23.7207,1.233922,-139.5068,1.186312,98.7343,0.0,66.1505,0.0,-49.5037,0.0,-171.2566
181994,LL,0,0.143388,-22.4391,0.178303,-141.9911,1.59,104.0442,0.0,67.7572,0.0,-52.2409,0.0,-165.8856
181994,LL,10,1.092197,-31.5661,1.271661,-147.5661,1.177409,104.312,0.0,58.4282,0.0,-57.8631,0.0,-165.7879
181994,LL,20,1.164175,-26.613,1.250441,-143.832,1.186209,101.3678,0.0,63.4921,0.0,-53.7572,0.0,-168.5707
181994,LL,30,1.185173,-24.8154,1.241293,-142.7227,1.193893,100.464,0.0,65.3122,0.0,-52.8256,0.0,-169.4461
181994,LL,40,1.194995,-23.8964,1.236493,-142.1963,1.198514,100.0371,0.0,66.2141,0.0,-52.0436,0.0,-169.9427
181994,3LG,0,0.160685,-18.6594,0.160971,-138.561,0.16067,101.4157,0.0,71.3876,0.0,-48.5092,0.0,-168.5342
181994,3LG,10,1.159632,-27.0906,1.162166,-146.6947,1.153459,93.0067,0.0,62.826,0.0,-56.7678,0.0,-176.9269
181994,3LG,20,1.191991,-24.1859,1.193175,-143.8025,1.185322,95.8385,0.0,65.8056,0.0,-53.8701,0.0,-174.1678
181994,3LG,30,1.202205,-23.1715,1.202983,-142.7985,1.19552,96.8281,0.0,66.7666,0.0,-52.8992,0.0,-173.1756
181994,3LG,40,1.207183,-22.656,1.207774,-142.2891,1.200517,97.3316,0.0,67.3354,0.0,-52.2694,0.0,-172.5595
181891,SLG,0,0.285164,-42.5056,1.728439,-147.2084,1.252576,121.9709,0.0,47.3287,0.0,-57.2344,0.0,-148.009
181891,SLG,10,1.206654,-31.322,1.288848,-136.6876,1.104639,99.3651,0.0,58.7196,0.0,-46.7527,0.0,-170.6645
181891,SLG,20,1.221418,-26.2968,1.250056,-138.4451,1.158321,98.8037,0.0,63.7617,0.0,-48.3665,0.0,-171.1057
181891,SLG,30,1.223173,-24.571,1.239206,-139.1551,1.177099,98.758,0.0,65.515,0.0,-49.2121,0.0,-171.1439
181891,SLG,40,1.223416,-23.7017,1.23427,-139.531,1.186568,98.7617,0.0,66.2919,0.0,-49.468,0.0,-171.2811
181891,LL,0,0.253537,-35.7593,0.30558,-156.5383,1.549248,104.5959,0.0,54.5012,0.0,-66.0799,0.0,-165.3514
181891,LL,10,1.092695,-31.0451,1.265476,-147.534,1.182419,104.1419,0.0,58.8889,0.0,-57.4953,0.0,-165.8588
181891,LL,20,1.163546,-26.4581,1.248876,-143.85,1.188156,101.35,0.0,63.5738,0.0,-53.8148,0.0,-168.5498
181891,LL,30,1.184691,-24.7357,1.240586,-142.7373,1.19497,100.4622,0.0,65.2173,0.0,-52.9008,0.0,-169.5072
181891,LL,40,1.194627,-23.8453,1.236085,-142.2075,1.19923,100.0386,0.0,66.11,0.0,-52.343,0.0,-169.9551
181891,3LG,0,0.280745,-33.1688,0.281257,-153.0364,0.280473,86.9009,0.0,56.9131,0.0,-62.9888,0.0,176.9254
181891,3LG,10,1.159738,-26.9253,1.162118,-146.5416,1.153706,93.1563,0.0,63.1228,0.0,-56.3811,0.0,-176.7874
181891,3LG,20,1.191972,-24.1308,1.193132,-143.7531,1.185396,95.8882,0.0,65.864,0.0,-53.899,0.0,-173.9816
181891,3LG,30,1.202191,-23.1413,1.202962,-142.7717,1.195567,96.8553,0.0,66.7618,0.0,-52.8778,0.0,-173.0877
181891,3LG,40,1.207174,-22.6359,1.207763,-142.2714,1.200554,97.3496,0.0,67.3272,0.0,-52.3236,0.0,-172.6635
255335,SLG,0,0.291849,-36.4031,1.737874,-147.3233,1.255901,122.3688,0.0,53.5256,0.0,-57.4658,0.0,-147.5913
255335,SLG,10,1.215508,-31.9361,1.290503,-136.1227,1.093243,99.0641,0.0,58.0947,0.0,-46.0378,0.0,-171.0112
255335,SLG,20,1.227301,-26.5646,1.249184,-138.145,1.153321,98.5918,0.0,63.5817,0.0,-48.2674,0.0,-171.2567
255335,SLG,30,1.227383,-24.7382,1.238225,-138.9558,1.173987,98.6063,0.0,65.3843,0.0,-48.9808,0.0,-171.2787
255335,SLG,40,1.226675,-23.8225,1.233385,-139.3826,1.184325,98.6445,0.0,66.2099,0.0,-49.4287,0.0,-171.3196
255335,LL,0,0.27636,-28.5846,0.317838,-153.0494,1.556903,104.4509,0.0,61.169,0.0,-62.8656,0.0,-165.6186
255335,LL,10,1.087755,-32.0254,1.277747,-147.75,1.173708,104.6987,0.0,57.949,0.0,-57.8429,0.0,-165.2417
255335,LL,20,1.163956,-26.9589,1.254712,-143.8553,1.181949,101.5158,0.0,63.0351,0.0,-53.8977,0.0,-168.507
255335,LL,30,1.185617,-25.0643,1.244233,-142.7195,1.190627,100.5422,0.0,65.0372,0.0,-52.613,0.0,-169.2926
255335,LL,40,1.195561,-24.0887,1.238706,-142.1869,1.195929,100.0871,0.0,65.9217,0.0,-52.2637,0.0,-169.9776
255335,3LG,0,0.303384,-28.7785,0.304106,-148.6357,0.303214,91.3201,0.0,61.2107,0.0,-58.6557,0.0,-178.6629
255335,3LG,10,1.158889,-27.2493,1.161547,-146.8387,1.152545,92.8612,0.0,62.796,0.0,-57.0007,0.0,-177.1192
255335,3LG,20,1.192031,-24.305,1.193221,-143.9113,1.185187,95.725,0.0,65.5952,0.0,-53.9752,0.0,-174.3109
255335,3LG,30,1.20235,-23.2595,1.203113,-142.8793,1.195531,96.7432,0.0,66.8363,0.0,-53.0364,0.0,-173.1317
255335,3LG,40,1.207341,-22.7252,1.207912,-142.3528,1.200569,97.2644,0.0,67.2262,0.0,-52.3799,0.0,-172.7078
182030,SLG,0,0.323175,-39.775,1.729476,-146.7339,1.23822,121.9815,0.0,50.2618,0.0,-56.6007,0.0,-148.0092
182030,SLG,10,1.214556,-31.8492,1.290254,-136.1703,1.094262,99.0852,0.0,58.1823,0.0,-46.3528,0.0,-170.8575
182030,SLG,20,1.226984,-26.5443,1.249199,-138.1581,1.153551,98.6002,0.0,63.4349,0.0,-48.3381,0.0,-171.3777
182030,SLG,30,1.227231,-24.7294,1.238244,-138.9616,1.174084,98.6104,0.0,65.2249,0.0,-48.9627,0.0,-171.3833
182030,SLG,40,1.226586,-23.8176,1.233399,-139.3858,1.184377,98.6468,0.0,66.1927,0.0,-49.5917,0.0,-171.3521
182030,LL,0,0.307887,-30.0239,0.359785,-156.4492,1.547868,104.7177,0.0,59.897,0.0,-66.7236,0.0,-165.3236
182030,LL,10,1.088266,-31.9023,1.27615,-147.7062,1.174517,104.6415,0.0,58.1107,0.0,-57.7347,0.0,-165.3822
182030,LL,20,1.16394,-26.9267,1.254306,-143.8499,1.182258,101.5067,0.0,62.9771,0.0,-53.9326,0.0,-168.4927
182030,LL,30,1.185586,-25.0501,1.244059,-142.718,1.190773,100.5392,0.0,64.9517,0.0,-52.6338,0.0,-169.3628
182030,LL,40,1.195538,-24.0808,1.23861,-142.1862,1.196013,100.0857,0.0,65.8561,0.0,-52.3602,0.0,-169.8326
182030,3LG,0,0.343889,-31.0537,0.344761,-150.9039,0.34367,89.0491,0.0,59.125,0.0,-60.9169,0.0,179.1611
182030,3LG,10,1.158834,-27.1998,1.161461,-146.7904,1.1525,92.9087,0.0,62.852,0.0,-57.0015,0.0,-177.0301
182030,3LG,20,1.19199,-24.2921,1.193176,-143.8988,1.185154,95.7375,0.0,65.6345,0.0,-53.9674,0.0,-174.2823
182030,3LG,30,1.202328,-23.2537,1.20309,-142.8737,1.195512,96.7489,0.0,66.7036,0.0,-52.877,0.0,-173.2464
182030,3LG,40,1.207327,-22.7219,1.207898,-142.3497,1.200557,97.2676,0.0,67.4085,0.0,-52.3735,0.0,-172.6726
182153,SLG,0,0.485607,-43.1643,1.702029,-144.3966,1.170455,120.5133,0.0,46.76,0.0,-54.4871,0.0,-149.5234
182153,SLG,10,1.21521,-33.2572,1.306276,-135.3493,1.072623,99.3961,0.0,56.6601,0.0,-45.3224,0.0,-170.6811
182153,SLG,20,1.233548,-27.2934,1.252281,-137.5383,1.140615,98.3557,0.0,62.8031,0.0,-47.5208,0.0,-171.5061
182153,SLG,30,1.23292,-25.2435,1.239281,-138.5152,1.165425,98.3989,0.0,64.6719,0.0,-48.4978,0.0,-171.5489
182153,SLG,40,1.23136,-24.2068,1.233755,-139.0405,1.177913,98.4704,0.0,65.8273,0.0,-49.1369,0.0,-171.5228
182153,LL,0,0.503279,-34.2141,0.536874,-162.8207,1.507481,105.2206,0.0,55.8416,0.0,-72.5701,0.0,-164.7845
182153,LL,10,1.069416,-32.6785,1.284528,-148.7353,1.175929,105.7169,0.0,57.2492,0.0,-58.7687,0.0,-164.3131
182153,LL,20,1.156358,-27.9208,1.264988,-144.1604,1.17329,102.0898,0.0,62.0941,0.0,-54.0668,0.0,-167.8341
182153,LL,30,1.182099,-25.7821,1.251548,-142.8666,1.183188,100.8733,0.0,64.0805,0.0,-52.9125,0.0,-169.0791
182153,LL,40,1.193576,-24.6517,1.244256,-142.2749,1.189806,100.311,0.0,65.4661,0.0,-52.396,0.0,-169.5959
182153,3LG,0,0.54005,-37.7238,0.541941,-157.4935,0.539141,82.4155,0.0,52.2893,0.0,-67.4693,0.0,172.3558
182153,3LG,10,1.152809,-27.7169,1.156133,-147.2879,1.146551,92.4347,0.0,62.2862,0.0,-57.3113,0.0,-177.6233
182153,3LG,20,1.189285,-24.6758,1.19072,-144.2595,1.182183,95.3775,0.0,65.2374,0.0,-54.3206,0.0,-174.5324
182153,3LG,30,1.200691,-23.5386,1.201559,-143.1413,1.193627,96.4782,0.0,66.3549,0.0,-53.251,0.0,-173.5812
182153,3LG,40,1.206176,-22.9466,1.206801,-142.5609,1.199197,97.0527,0.0,67.0791,0.0,-52.5881,0.0,-172.875
182158,SLG,0,0.539262,-42.0803,1.68612,-143.8204,1.155395,119.658,0.0,47.9364,0.0,-53.8567,0.0,-150.2368
182158,SLG,10,1.214945,-33.7175,1.312752,-135.0818,1.065194,99.5772,0.0,56.3828,0.0,-44.9657,0.0,-170.3401
182158,SLG,20,1.236357,-27.5333,1.253229,-137.3098,1.135963,98.2543,0.0,62.5506,0.0,-47.3559,0.0,-171.7693
182158,SLG,30,1.235418,-25.4066,1.239426,-138.349,1.162344,98.3085,0.0,64.6411,0.0,-48.3436,0.0,-171.6938
182158,SLG,40,1.233475,-24.3293,1.233659,-138.9118,1.175634,98.3942,0.0,65.6939,0.0,-49.0204,0.0,-171.6341
182158,LL,0,0.556286,-33.6729,0.591012,-161.5925,1.491668,105.2188,0.0,56.2248,0.0,-71.4851,0.0,-164.8048
182158,LL,10,1.068589,-32.3909,1.281764,-149.1462,1.181208,105.8616,0.0,57.5395,0.0,-59.1388,0.0,-164.2132
182158,LL,20,1.153913,-28.2536,1.269239,-144.2603,1.170082,102.3101,0.0,61.7517,0.0,-54.1179,0.0,-167.6875
182158,LL,30,1.181248,-26.0355,1.254591,-142.9034,1.180279,100.9944,0.0,63.9659,0.0,-52.8787,0.0,-168.916
182158,LL,40,1.193271,-24.851,1.246551,-142.2906,1.187385,100.3893,0.0,65.1103,0.0,-52.1923,0.0,-169.5829
182158,3LG,0,0.593846,-36.9149,0.596098,-156.6479,0.592578,83.2391,0.0,52.9029,0.0,-66.5642,0.0,173.2849
182158,3LG,10,1.151236,-27.8535,1.154771,-147.4219,1.145045,92.309,0.0,62.1383,0.0,-57.3845,0.0,-177.6543
182158,3LG,20,1.188728,-24.7924,1.190245,-144.3688,1.181534,95.2682,0.0,65.1724,0.0,-54.2033,0.0,-174.6554
182158,3LG,30,1.200423,-23.6277,1.201319,-143.2245,1.193265,96.3933,0.0,66.394,0.0,-53.3465,0.0,-173.6282
182158,3LG,40,1.206022,-23.0177,1.206655,-142.6274,1.198961,96.9844,0.0,66.9522,0.0,-52.7988,0.0,-173.0771
182162,SLG,0,0.584382,-40.9252,1.671503,-143.3881,1.144943,118.8712,0.0,48.9585,0.0,-53.4507,0.0,-151.0753
182162,SLG,10,1.214273,-34.1788,1.319691,-134.827,1.05772,99.7894,0.0,55.751,0.0,-44.7943,0.0,-170.1255
182162,SLG,20,1.239181,-27.7732,1.254278,-137.0789,1.131218,98.1538,0.0,62.1358,0.0,-46.9758,0.0,-171.8486
182162,SLG,30,1.237989,-25.5686,1.239579,-138.1801,1.159218,98.2159,0.0,64.4198,0.0,-48.3379,0.0,-171.8075
182162,SLG,40,1.235667,-24.4501,1.233544,-138.7811,1.173333,98.3156,0.0,65.5189,0.0,-48.8789,0.0,-171.6743
182162,LL,0,0.600143,-33.1183,0.634765,-160.305,1.477892,105.1601,0.0,56.8809,0.0,-70.1255,0.0,-164.8459
182162,LL,10,1.067956,-32.1094,1.278826,-149.5415,1.186482,105.995,0.0,57.9334,0.0,-59.6323,0.0,-163.9954
182162,LL,20,1.151271,-28.5816,1.273649,-144.3692,1.167014,102.5438,0.0,61.4631,0.0,-54.3924,0.0,-167.487
182162,LL,30,1.180365,-26.289,1.257778,-142.9413,1.177349,101.1217,0.0,63.8045,0.0,-52.985,0.0,-168.7398
182162,LL,40,1.192989,-25.051,1.24895,-142.3052,1.184917,100.4704,0.0,64.926,0.0,-52.3192,0.0,-169.4732
182162,3LG,0,0.637162,-36.071,0.639701,-155.7721,0.635534,84.0936,0.0,54.0119,0.0,-65.8442,0.0,174.1088
182162,3LG,10,1.149747,-27.9825,1.15349,-147.5499,1.143647,92.1901,0.0,61.9188,0.0,-57.6702,0.0,-177.7659
182162,3LG,20,1.188235,-24.9057,1.189845,-144.4747,1.180953,95.1627,0.0,65.0145,0.0,-54.4831,0.0,-174.9132
182162,3LG,30,1.200213,-23.7146,1.201139,-143.3055,1.192958,96.3107,0.0,66.1745,0.0,-53.3889,0.0,-173.6993
182162,3LG,40,1.205917,-23.0872,1.206559,-142.6922,1.198771,96.9177,0.0,66.9287,0.0,-52.8124,0.0,-173.0599
